@<TRIPOS>MOLECULE
*****
 7 5 0 0 0
SMALL
GASTEIGER

@<TRIPOS>ATOM
      1 C          -4.4463    2.7244    0.0000 C.3     1  UNL1        0.0792
      2 H          -3.3763    2.7244    0.0000 H       1  UNL1        0.0578
      3 H          -4.8030    2.5937   -1.0003 H       1  UNL1        0.0578
      4 H          -4.8030    3.6561    0.3869 H       1  UNL1        0.0578
      5 Cl          -4.8030    1.9235    0.6134 F       1  UNL1       -0.2526
      6 S          -4.0089    4.1825   -1.1180 S.3     1  UNL1       -0.1137
      7 H          -3.2109    4.6973   -2.0634 H       2  UNL2        0.1137
@<TRIPOS>BOND
     1     7     6    1
     2     3     1    1
     3     1     2    1
     4     1     4    1
     5     1     5    1
